ELEMENTS
AR C H HE N O 
END

SPECIES
AR H H2 H2NN HE N N2 N2H2 N2H3 
N2H4 NH NH2 NH3 NNH 
END

THERMO ALL
  300.0000   1000.00 5000.0000
! Refitting species AR:
!   max difference Cp/R = 2.6645e-15 at T =   556.2781 K
!   max difference H/RT = 1.5543e-15 at T =  1003.0015 K
!   max difference S/R  = 7.1054e-15 at T =   398.7494 K
!   T_match =  1000.000000 jump
!   Delta(Cp/R, H/RT, S/R) = ( 0.000e+00, 0.000e+00, 0.000e+00)
AR                      AR  1    0    0    0G  300.0000 5000.0000 1000.00      1
 2.50000000e+00 0.00000000e+00 0.00000000e+00 0.00000000e+00 0.00000000e+00    2
-7.45375000e+02 4.36600000e+00 2.50000000e+00-1.56525602e-16 4.56943616e-19    3
-5.17814989e-22 1.99020834e-25-7.45375000e+02 4.36600000e+00                   4
! Refitting species H:
!   max difference Cp/R = 1.2446e-09 at T =   998.9995 K
!   max difference H/RT = 2.8133e-09 at T =  1000.6503 K
!   max difference S/R  = 8.5018e-09 at T =  1000.6503 K
!   T_match =  1000.000000 jump
!   Delta(Cp/R, H/RT, S/R) = ( 0.000e+00, 0.000e+00, 0.000e+00)
H                 L 6/94H   1    0    0    0G  200.0000 6000.0000 1000.00      1
 2.50000000e+00 0.00000000e+00 0.00000000e+00 0.00000000e+00 0.00000000e+00    2
 2.54736600e+04-4.46682850e-01 2.50000000e+00-1.21434192e-16 3.14642268e-19    3
-3.30872200e-22 1.21191563e-25 2.54736600e+04-4.46682850e-01                   4
! Refitting species O:
!   max difference Cp/R = 4.9696e-03 at T =   200.0000 K
!   max difference H/RT = 9.0429e-04 at T =   200.0000 K
!   max difference S/R  = 8.0172e-04 at T =   200.0000 K
!   T_match =  1000.000000 jump
!   Delta(Cp/R, H/RT, S/R) = (-4.441e-16, 3.553e-15,-3.553e-15)
H2                      H   2    0    0    0G  200.0000 3500.0000 1000.00      1
 3.33727920e+00-4.94024731e-05 4.99456778e-07-1.79566394e-10 2.00255376e-14    2
-9.52851692e+02-3.20685584e+00 2.63703014e+00 5.51055679e-03-1.21759447e-05    3
 1.12923549e-08-3.63620454e-12-9.44182766e+02-5.01881510e-01                   4
! Refitting species H2NN:
!   max difference Cp/R = 4.0712e-02 at T =   200.0000 K
!   max difference H/RT = 7.4081e-03 at T =   200.0000 K
!   max difference S/R  = 6.5678e-03 at T =   200.0000 K
!   T_match =  1000.000000 jump
!   Delta(Cp/R, H/RT, S/R) = ( 1.776e-15,-7.105e-15, 0.000e+00)
H2NN                    H   2N   2    0    0G  200.0000 6000.0000 1000.00      1
 3.05903670e+00 6.18382347e-03-2.22171165e-06 3.58539206e-10-2.14532905e-14    2
 3.48572542e+04 6.70182016e+00 4.07123144e+00-3.43561618e-03 1.85841969e-05    3
-1.64437379e-08 4.58216019e-12 3.49993230e+04 3.37616765e+00                   4
! Refitting species H2NO:
!   max difference Cp/R = 1.9886e-06 at T =  1499.3997 K
!   max difference H/RT = 4.7413e-07 at T =  1501.2506 K
!   max difference S/R  = 8.3926e-06 at T =  1501.2506 K
!   T_match =  1500.000000 jump
!   Delta(Cp/R, H/RT, S/R) = ( 1.776e-15, 0.000e+00, 0.000e+00)
!H2NO                    H   2O   1N   1    0G  300.0000 4000.0000 1500.00      1
! 5.67334600e+00 2.29883700e-03-1.77444600e-07-1.10348200e-10 1.85976200e-14    2
! 5.56932571e+03-6.15353161e+00 2.53059296e+00 8.59601653e-03-5.47099406e-06    3
! 2.27622271e-09-4.64801256e-13 6.86802967e+03 1.12664973e+01                   4
! Refitting species H2O:
!   max difference Cp/R = 1.7826e-04 at T =   200.0000 K
!   max difference H/RT = 3.2437e-05 at T =   200.0000 K
!   max difference S/R  = 2.8758e-05 at T =   200.0000 K
!   T_match =  1000.000000 jump
!   Delta(Cp/R, H/RT, S/R) = ( 0.000e+00, 0.000e+00, 0.000e+00)
!H2O                     H   2O   1    0    0G  200.0000 3500.0000 1000.00      1
! 3.03399249e+00 2.17691804e-03-1.64072518e-07-9.70419870e-11 1.68200992e-14    2
!-3.00042785e+04 4.96678276e+00 4.19662285e+00-2.01940753e-03 6.47006475e-06    3
!-5.42686127e-09 1.74619732e-12-3.02935458e+04-8.40864214e-01                   4
! Refitting species H2O2:
!   max difference Cp/R = 3.0404e-02 at T =   200.0000 K
!   max difference H/RT = 5.5324e-03 at T =   200.0000 K
!   max difference S/R  = 4.9049e-03 at T =   200.0000 K
!   T_match =  1000.000000 jump
!   Delta(Cp/R, H/RT, S/R) = ( 3.553e-15, 0.000e+00, 0.000e+00)
!H2O2                    H   2O   2    0    0G  200.0000 3500.0000 1000.00      1
! 4.16500285e+00 4.90831694e-03-1.90139225e-06 3.71185986e-10-2.87908305e-14    2
!-1.78586218e+04 2.91831124e+00 3.93197775e+00 2.36118766e-03 8.14814882e-06    3
!-1.11544079e-08 4.22741638e-12-1.76717220e+04 4.82816319e+00                   4
! Refitting species HE:
!   max difference Cp/R = 1.7764e-15 at T =   200.0000 K
!   max difference H/RT = 8.8818e-16 at T =   208.7044 K
!   max difference S/R  = 3.5527e-15 at T =   437.9190 K
!   T_match =  1000.000000 jump
!   Delta(Cp/R, H/RT, S/R) = ( 4.441e-16, 0.000e+00, 0.000e+00)
HE                      HE  1    0    0    0G  200.0000 6000.0000 1000.00      1
 2.50000000e+00 0.00000000e+00 0.00000000e+00 0.00000000e+00 0.00000000e+00    2
-7.45375000e+02 9.28723974e-01 2.50000000e+00-1.21434192e-16 3.14642268e-19    3
-3.30872200e-22 1.21191563e-25-7.45375000e+02 9.28723974e-01                   4
! Refitting species HNO:
!   max difference Cp/R = 5.4156e-07 at T =   946.5733 K
!   max difference H/RT = 2.9043e-06 at T =  1000.6503 K
!   max difference S/R  = 2.5931e-06 at T =  1054.7274 K
!   T_match =  1000.000000 jump
!   Delta(Cp/R, H/RT, S/R) = ( 4.441e-15, 0.000e+00, 0.000e+00)
!HNO                     H   1O   1N   1    0G  300.0000 5000.0000 1000.00      1
! 3.61514400e+00 3.21248600e-03-1.26033700e-06 2.26729800e-10-1.53623600e-14    2
! 1.06619129e+04 4.81026141e+00 2.78439387e+00 6.60971610e-03-9.30040950e-06    3
! 9.43818504e-09-3.75322506e-12 1.09187809e+04 9.03566675e+00                   4
! Refitting species HNO2:
!   max difference Cp/R = 1.8131e-06 at T =  1423.5118 K
!   max difference H/RT = 3.1425e-07 at T =  1499.3997 K
!   max difference S/R  = 3.2152e-06 at T =  1501.2506 K
!   T_match =  1500.000000 jump
!   Delta(Cp/R, H/RT, S/R) = (-1.776e-15, 0.000e+00, 7.105e-15)
!HNO2                    H   1O   2N   1    0G  300.0000 4000.0000 1500.00      1
! 6.47963000e+00 1.99527400e-03-1.74038700e-07-9.69587200e-11 1.70148000e-14    2
!-7.80950328e+03-1.06771486e+01 1.93482897e+00 1.01004186e-02-4.96473863e-06    3
! 8.70212516e-10-2.35191805e-15-5.91571493e+03 1.47282468e+01                   4
! Refitting species HNOH:
!   max difference Cp/R = 5.1536e-02 at T =   200.0000 K
!   max difference H/RT = 9.3778e-03 at T =   200.0000 K
!   max difference S/R  = 8.3140e-03 at T =   200.0000 K
!   T_match =  1000.000000 jump
!   Delta(Cp/R, H/RT, S/R) = ( 8.882e-16, 0.000e+00, 0.000e+00)
!HNOH                    H   2O   1N   1    0G  200.0000 6000.0000 1000.00      1
! 3.98321933e+00 4.88846374e-03-1.65086637e-06 2.55371446e-10-1.48308561e-14    2
! 1.05833771e+04 3.62948054e+00 3.37275545e+00 1.89634132e-03 1.11346941e-05    3
!-1.38975267e-08 4.95509312e-12 1.09722885e+04 7.92090954e+00                   4
! Refitting species HO2:
!   max difference Cp/R = 3.2883e-02 at T =   200.0000 K
!   max difference H/RT = 5.9836e-03 at T =   200.0000 K
!   max difference S/R  = 5.3048e-03 at T =   200.0000 K
!   T_match =  1000.000000 jump
!   Delta(Cp/R, H/RT, S/R) = (-8.882e-16, 0.000e+00, 0.000e+00)
!HO2                     H   1O   2    0    0G  200.0000 3500.0000 1000.00      1
! 4.01721090e+00 2.23982013e-03-6.33658150e-07 1.14246370e-10-1.07908535e-14    2
! 1.15280867e+02 3.78743242e+00 3.92960049e+00-1.60830209e-03 1.18727670e-05    3
!-1.30037956e-08 4.53655859e-12 3.28184607e+02 5.22337662e+00                   4
! Refitting species HON:
!   max difference Cp/R = 8.8788e-03 at T =  1475.5878 K
!   max difference H/RT = 1.5898e-03 at T =  1654.2771 K
!   max difference S/R  = 2.8144e-03 at T =  1738.9195 K
!   T_match =  1671.000000 jump
!   Delta(Cp/R, H/RT, S/R) = (-8.882e-16, 0.000e+00, 7.105e-15)
!HON                     H   1O   1N   1    0G  300.0000 5000.0000 1671.00      1
! 3.78577430e+00 2.86062728e-03-1.02423922e-06 1.64463139e-10-9.77943616e-15    2
! 2.93293258e+04 3.11911856e+00 3.39246137e+00 2.32348720e-03 1.27023231e-06    3
!-1.66747061e-09 4.30367839e-13 2.95917808e+04 5.72341849e+00                   4
! Refitting species HONO:
!   max difference Cp/R = 3.2450e-06 at T =   986.5433 K
!   max difference H/RT = 1.6810e-06 at T =  1000.6503 K
!   max difference S/R  = 5.1349e-06 at T =  1064.1321 K
!   T_match =  1000.000000 jump
!   Delta(Cp/R, H/RT, S/R) = ( 0.000e+00, 8.882e-16, 0.000e+00)
!HONO                    H   1O   2N   1    0G  300.0000 5000.0000 1000.00      1
! 5.48689300e+00 4.21806500e-03-1.64914300e-06 2.97187700e-10-2.02114800e-14    2
!-1.12686517e+04-2.99700713e+00 2.29037472e+00 1.40995112e-02-1.36794846e-05    3
! 7.49960538e-09-1.87721549e-12-1.04319463e+04 1.32809286e+01                   4
! Refitting species HONO2:
!   max difference Cp/R = 5.7786e-02 at T =   200.0000 K
!   max difference H/RT = 1.0515e-02 at T =   200.0000 K
!   max difference S/R  = 9.3223e-03 at T =   200.0000 K
!   T_match =  1000.000000 jump
!   Delta(Cp/R, H/RT, S/R) = ( 0.000e+00, 3.553e-15,-7.105e-15)
!HONO2                   H   1O   3N   1    0G  200.0000 6000.0000 1000.00      1
! 8.03098942e+00 4.46958589e-03-1.72459491e-06 2.91556153e-10-1.80102702e-14    2
!-1.92761511e+04-1.62575769e+01 1.03922026e+00 2.45362027e-02-2.45694284e-05    3
! 1.37484493e-08-3.70491756e-12-1.73295877e+04 1.98317491e+01                   4
! Refitting species N:
!   max difference Cp/R = 3.6285e-04 at T =   899.5498 K
!   max difference H/RT = 5.9722e-05 at T =  1000.6503 K
!   max difference S/R  = 9.1974e-05 at T =  1007.7039 K
!   T_match =  1000.000000 jump
!   Delta(Cp/R, H/RT, S/R) = ( 0.000e+00, 7.105e-15,-3.553e-15)
N                       N   1    0    0    0G  300.0000 5000.0000 1000.00      1
 2.45026800e+00 1.06614600e-04-7.46533700e-08 1.87965200e-11-1.02598400e-15    2
 5.61159802e+04 4.44866603e+00 2.51239393e+00-9.42571483e-05 2.50330048e-07    3
-2.77058774e-10 1.08591715e-13 5.60980027e+04 4.12910938e+00                   4
! Refitting species N2:
!   max difference Cp/R = 1.4577e-06 at T =   979.4897 K
!   max difference H/RT = 8.3069e-07 at T =  1000.6503 K
!   max difference S/R  = 1.5396e-06 at T =  1024.1621 K
!   T_match =  1000.000000 jump
!   Delta(Cp/R, H/RT, S/R) = (-4.441e-16,-4.441e-16, 0.000e+00)
N2                      N   2    0    0    0G  300.0000 5000.0000 1000.00      1
 2.92664000e+00 1.48797680e-03-5.68476000e-07 1.00970380e-10-6.75335100e-15    2
-9.22796869e+02 5.98052646e+00 3.29865872e+00 1.40837971e-03-3.96358857e-06    3
 5.64191194e-09-2.44500396e-12-1.02089812e+03 3.95044772e+00                   4
! Refitting species N2H2:
!   max difference Cp/R = 4.5456e-08 at T =   999.6630 K
!   max difference H/RT = 5.2424e-08 at T =  1000.5143 K
!   max difference S/R  = 7.9163e-09 at T =  1002.2170 K
!   T_match =  1000.000000 jump
!   Delta(Cp/R, H/RT, S/R) = ( 0.000e+00, 0.000e+00, 0.000e+00)
N2H2                    H   2N   2    0    0G  298.1500 2000.0000 1000.00      1
 2.38388380e+00 6.63619559e-03-1.81669068e-06-1.19497031e-10 9.31659255e-14    2
 2.34207531e+04 1.06091658e+01 4.14915912e+00-4.82013795e-03 2.19606590e-05    3
-2.03662970e-08 6.25367446e-12 2.32874597e+04 3.19154082e+00                   4
! Refitting species N2H3:
!   max difference Cp/R = 5.6600e-02 at T =   200.0000 K
!   max difference H/RT = 1.0299e-02 at T =   200.0000 K
!   max difference S/R  = 9.1309e-03 at T =   200.0000 K
!   T_match =  1000.000000 jump
!   Delta(Cp/R, H/RT, S/R) = (-3.553e-15, 0.000e+00, 0.000e+00)
N2H3                    H   3N   2    0    0G  200.0000 6000.0000 1000.00      1
 4.04483566e+00 7.31130186e-03-2.47625799e-06 3.83733021e-10-2.23107573e-14    2
 2.48157541e+04 2.88824492e+00 2.78061414e+00 6.75511530e-03 6.36330365e-06    3
-1.05699445e-08 3.91221319e-12 2.53630630e+04 1.04251784e+01                   4
! Refitting species N2H4:
!   max difference Cp/R = 9.3068e-02 at T =   200.0000 K
!   max difference H/RT = 1.6935e-02 at T =   200.0000 K
!   max difference S/R  = 1.5014e-02 at T =   200.0000 K
!   T_match =  1000.000000 jump
!   Delta(Cp/R, H/RT, S/R) = ( 3.553e-15, 0.000e+00, 0.000e+00)
N2H4                    H   4N   2    0    0G  200.0000 6000.0000 1000.00      1
 4.93957357e+00 8.75017187e-03-2.99399058e-06 4.67278418e-10-2.73068599e-14    2
 9.29234679e+03-2.68780235e+00 2.78129807e+00 8.24026776e-03 1.14042141e-05    3
-1.81663167e-08 6.87626313e-12 1.01838576e+04 1.00171442e+01                   4
! Refitting species N2O:
!   max difference Cp/R = 1.8296e-06 at T =   998.2991 K
!   max difference H/RT = 3.3682e-07 at T =  1000.6503 K
!   max difference S/R  = 7.6205e-06 at T =  1000.6503 K
!   T_match =  1000.000000 jump
!   Delta(Cp/R, H/RT, S/R) = (-2.665e-15, 0.000e+00, 0.000e+00)
!N2O                     O   1N   2    0    0G  300.0000 5000.0000 1000.00      1
! 4.71897700e+00 2.87371400e-03-1.19749600e-06 2.25055200e-10-1.57533700e-14    2
! 8.16581066e+03-1.65724238e+00 2.54303878e+00 9.49233877e-03-9.79315613e-06    3
! 6.26425400e-09-1.90197860e-12 8.76510188e+03 9.51130165e+00                   4
! Refitting species NH:
!   max difference Cp/R = 6.4973e-09 at T =   999.6630 K
!   max difference H/RT = 8.0635e-09 at T =  1000.5143 K
!   max difference S/R  = 1.9533e-08 at T =  1000.5143 K
!   T_match =  1000.000000 jump
!   Delta(Cp/R, H/RT, S/R) = ( 4.441e-16, 0.000e+00, 0.000e+00)
NH                      H   1N   1    0    0G  298.1500 2000.0000 1000.00      1
 3.38393047e+00-3.04401048e-04 1.07871576e-06-5.39749068e-10 8.56574985e-14    2
 4.18557586e+04 2.60065698e+00 3.49138453e+00 2.48104619e-04-1.22352540e-06    3
 1.97740002e-09-7.89210150e-13 4.17851517e+04 1.83667276e+00                   4
! Refitting species NH2:
!   max difference Cp/R = 1.4994e-08 at T =   999.6630 K
!   max difference H/RT = 3.1298e-08 at T =  1000.5143 K
!   max difference S/R  = 5.9200e-08 at T =  1804.1893 K
!   T_match =  1000.000000 jump
!   Delta(Cp/R, H/RT, S/R) = ( 8.882e-16,-3.553e-15, 0.000e+00)
NH2                     H   2N   1    0    0G  298.1500 2000.0000 1000.00      1
 3.80751460e+00 1.74138848e-04 2.06281679e-06-1.18308148e-09 2.00814234e-13    2
 2.12757238e+04 1.57634401e+00 4.02590040e+00-9.53250898e-04 4.13467075e-06    3
-2.81816337e-09 6.73046109e-13 2.12447390e+04 5.86220432e-01                   4
! Refitting species NH2OH:
!   max difference Cp/R = 4.6508e-02 at T =   200.0000 K
!   max difference H/RT = 8.4629e-03 at T =   200.0000 K
!   max difference S/R  = 7.5029e-03 at T =   200.0000 K
!   T_match =  1000.000000 jump
!   Delta(Cp/R, H/RT, S/R) = ( 1.776e-15,-4.441e-16, 0.000e+00)
!NH2OH                   H   3O   1N   1    0G  200.0000 6000.0000 1000.00      1
! 3.88112502e+00 8.15708448e-03-2.82615576e-06 4.37930933e-10-2.52724604e-14    2
!-6.85534125e+03 3.79485718e+00 2.68374332e+00 1.06389335e-02-2.07348345e-06    3
!-3.72343389e-09 2.09895275e-12-6.53427866e+03 1.00639571e+01                   4
! Refitting species NH3:
!   max difference Cp/R = 7.1188e-06 at T =   998.2991 K
!   max difference H/RT = 8.8265e-07 at T =   998.2991 K
!   max difference S/R  = 4.7840e-06 at T =  1470.8854 K
!   T_match =  1000.000000 jump
!   Delta(Cp/R, H/RT, S/R) = ( 0.000e+00,-8.882e-16, 3.553e-15)
NH3                     H   3N   1    0    0G  300.0000 5000.0000 1000.00      1
 2.46190400e+00 6.05916600e-03-2.00497700e-06 3.13600300e-10-1.93831700e-14    2
-6.49327085e+03 7.47209222e+00 2.20428351e+00 1.01152784e-02-1.46540008e-05    3
 1.44737927e-08-5.32904367e-12-6.52548128e+03 8.12742204e+00                   4
! Refitting species NNH:
!   max difference Cp/R = 4.7918e-09 at T =   999.6630 K
!   max difference H/RT = 6.7231e-09 at T =  1000.5143 K
!   max difference S/R  = 2.7707e-08 at T =  1000.5143 K
!   T_match =  1000.000000 jump
!   Delta(Cp/R, H/RT, S/R) = (-8.882e-16, 0.000e+00, 0.000e+00)
NNH                     H   1N   2    0    0G  298.1500 2000.0000 1000.00      1
 2.78024159e+00 4.51114118e-03-1.98147075e-06 3.61161241e-10-1.55679242e-14    2
 2.93473063e+04 9.91752872e+00 3.86231282e+00-4.41898521e-04 6.38522097e-06    3
-5.84138799e-09 1.69125807e-12 2.91621298e+04 4.85334925e+00                   4
! Refitting species NO:
!   max difference Cp/R = 4.5309e-07 at T =   958.3292 K
!   max difference H/RT = 1.6767e-06 at T =  1000.6503 K
!   max difference S/R  = 3.9887e-06 at T =  1661.3307 K
!   T_match =  1000.000000 jump
!   Delta(Cp/R, H/RT, S/R) = ( 0.000e+00,-1.776e-15,-3.553e-15)
!NO                      O   1N   1    0    0G  300.0000 5000.0000 1000.00      1
! 3.24543500e+00 1.26913800e-03-5.01589000e-07 9.16928300e-11-6.27541900e-15    2
! 9.80084168e+03 6.41729799e+00 3.37653523e+00 1.25311480e-03-3.30288819e-06    3
! 5.21795989e-09-2.44632032e-12 9.81796166e+03 5.82961801e+00                   4
! Refitting species NO2:
!   max difference Cp/R = 1.0714e-06 at T =   972.4362 K
!   max difference H/RT = 4.5554e-07 at T =  1000.6503 K
!   max difference S/R  = 1.9699e-06 at T =  1000.6503 K
!   T_match =  1000.000000 jump
!   Delta(Cp/R, H/RT, S/R) = ( 2.665e-15,-8.882e-16, 0.000e+00)
!NO2                     O   2N   1    0    0G  300.0000 5000.0000 1000.00      1
! 4.68285900e+00 2.46242900e-03-1.04225900e-06 1.97690200e-10-1.39171700e-14    2
! 2.26129246e+03 9.88596530e-01 2.67058570e+00 7.83861016e-03-8.06415290e-06    3
! 6.16202774e-09-2.32026867e-12 2.89629239e+03 1.16121292e+01                   4
! Refitting species NO3:
!   max difference Cp/R = 8.8881e-02 at T =   200.0000 K
!   max difference H/RT = 1.6173e-02 at T =   200.0000 K
!   max difference S/R  = 1.4339e-02 at T =   200.0000 K
!   T_match =  1000.000000 jump
!   Delta(Cp/R, H/RT, S/R) = ( 1.776e-15, 0.000e+00, 0.000e+00)
!NO3                     O   3N   1    0    0G  200.0000 6000.0000 1000.00      1
! 7.48347702e+00 2.57772064e-03-1.00945831e-06 1.72314063e-10-1.07154008e-14    2
! 6.13915999e+03-1.41555150e+01 1.16756871e+00 1.89796870e-02-1.40508671e-05    3
! 2.31286562e-09 8.04083704e-13 7.90312364e+03 1.86747550e+01                   4
! Refitting species O:
!   max difference Cp/R = 5.2008e-03 at T =   200.0000 K
!   max difference H/RT = 9.4637e-04 at T =   200.0000 K
!   max difference S/R  = 8.3902e-04 at T =   200.0000 K
!   T_match =  1000.000000 jump
!   Delta(Cp/R, H/RT, S/R) = (-8.882e-16, 0.000e+00,-3.553e-15)
!O                       O   1    0    0    0G  200.0000 3500.0000 1000.00      1
! 2.56942078e+00-8.59741137e-05 4.19484589e-08-1.00177799e-11 1.22833691e-15    2
! 2.92181207e+04 4.78470723e+00 3.10939988e+00-2.78256310e-03 5.17445426e-06    3
!-4.34517881e-09 1.36049345e-12 2.91275381e+04 2.29023724e+00                   4
! Refitting species O2:
!   max difference Cp/R = 6.2130e-03 at T =   200.0000 K
!   max difference H/RT = 1.1306e-03 at T =   200.0000 K
!   max difference S/R  = 1.0023e-03 at T =   200.0000 K
!   T_match =  1000.000000 jump
!   Delta(Cp/R, H/RT, S/R) = (-8.882e-16, 0.000e+00,-3.553e-15)
!O2                      O   2    0    0    0G  200.0000 3500.0000 1000.00      1
! 3.28253784e+00 1.48308754e-03-7.57966669e-07 2.09470555e-10-2.16717794e-14    2
!-1.08781074e+03 5.45367161e+00 3.71213227e+00-2.40329876e-03 8.09286837e-06    3
!-7.55141837e-09 2.34517397e-12-1.05763729e+03 3.94235871e+00                   4
! Refitting species OH:
!   max difference Cp/R = 3.0622e-03 at T =   200.0000 K
!   max difference H/RT = 5.5721e-04 at T =   200.0000 K
!   max difference S/R  = 4.9400e-04 at T =   200.0000 K
!   T_match =  1000.000000 jump
!   Delta(Cp/R, H/RT, S/R) = (-1.776e-15, 0.000e+00, 0.000e+00)
!OH                      H   1O   1    0    0G  200.0000 6000.0000 1000.00      1
! 2.86472886e+00 1.05650448e-03-2.59082758e-07 3.05218674e-11-1.33195876e-15    2
! 3.71917660e+03 5.70185771e+00 4.09064517e+00-2.93296453e-03 5.66294409e-06    3
!-4.74879004e-09 1.61950580e-12 3.38464627e+03-5.50122048e-01                   4
END
REACTIONS MOLES KELVINS

! R0001
!H+O2=O+OH                           1.0400E+14  0.00000      7692.21
! R0002
!O+H2=H+OH                           3.8180E+12  0.00000      3999.59
!DUPLICATE
! R0003
!O+H2=H+OH                           8.7920E+14  0.00000      9646.72
!DUPLICATE
! R0004
!H2+OH=H2O+H                         2.1600E+08  1.51000      1726.04
! R0005
!2OH=O+H2O                           2.0000E+07  1.65100       317.53
!DUPLICATE
! R0006
!2OH=O+H2O                           2.6000E+11 -0.05700      -416.16
!DUPLICATE
! R0007
H2+M=2H+M                           4.5770E+19 -1.40000     52526.06
H2/2.5000/ AR/0.0000/ HE/0.0000/ ! / H2O/12.0000
! R0008
H2+AR=2H+AR                         5.8400E+18 -1.10000     52526.06
! R0009
H2+HE=2H+HE                         5.8400E+18 -1.10000     52526.06
! R0010
!2O+M=O2+M                           6.1650E+15 -0.50000         0.00
!H2/2.5000/ H2O/12.0000/ AR/0.0000/ HE/0.0000/ 
! R0011
!2O+AR=O2+AR                         1.8860E+13  0.00000      -899.76
! R0012
!2O+HE=O2+HE                         1.8860E+13  0.00000      -899.76
! R0013
!O+H+M=OH+M                          4.7140E+18 -1.00000         0.00
!H2/2.5000/ H2O/12.0000/ AR/0.7500/ HE/0.7500/ 
! R0014
!H2O+M=H+OH+M                        6.0640E+27 -3.32200     60783.89
!H2/3.0000/ H2O/0.0000/ HE/1.1000/ N2/2.0000/ O2/1.5000/ 
! R0015
!2H2O=H+OH+H2O                       1.0060E+26 -2.44000     60476.93
! R0016
!H+O2(+M)=HO2(+M)                    4.6508E+12  0.44000         0.00
!LOW  /                              6.3660E+20 -1.72000       264.09/
!TROE /                              5.000E-01   1.00E-30   1.00E+30            /
!H2/2.0000/ H2O/14.0000/ O2/0.7800/ AR/0.6700/ HE/0.8000/ 
! R0017
!HO2+H=H2+O2                         2.7500E+06  2.09000      -730.17
! R0018
!HO2+H=2OH                           7.0790E+13  0.00000       148.45
! R0019
!HO2+O=O2+OH                         2.8500E+10  1.00000      -364.30
! R0020
!HO2+OH=H2O+O2                       1.9300E+20 -2.49000       293.88
!DUPLICATE
! R0021
!HO2+OH=H2O+O2                       1.2100E+09  1.24000      -659.22
!DUPLICATE
! R0022
!2H+O2=H2+O2                         8.8000E+22 -1.83500       402.58
! R0023
!2H+O2=2OH                           4.0000E+22 -1.83500       402.58
! R0024
!H+O2+O=OH+O2                        7.3500E+22 -1.83500       402.58
! R0025
!H+O2+OH=H2O+O2                      2.5600E+22 -1.83500       402.58
! R0026
!2HO2=H2O2+O2                        1.9300E-02  4.12000     -2495.97
! R0027
!2HO2=2OH+O2                         6.4100E+17 -1.54000      4297.50
! R0028
!H2O2(+M)=2OH(+M)                    2.0000E+12  0.90000     24531.45
!LOW  /                              2.4900E+24 -2.30000     24531.45/
!TROE /                              4.300E-01   1.00E-30   1.00E+30            /
!H2O/7.5000/ N2/1.5000/ O2/1.2000/ HE/0.6500/ H2O2/7.7000/ H2/3.7000/ 
! R0029
!H2O2+H=H2O+OH                       2.4100E+13  0.00000      1997.78
! R0030
!H2O2+H=HO2+H2                       4.8200E+13  0.00000      4000.60
! R0031
!H2O2+O=OH+HO2                       9.5500E+06  2.00000      1997.78
! R0032
!H2O2+OH=HO2+H2O                     1.7400E+12  0.00000       160.02
!DUPLICATE
! R0033
!H2O2+OH=HO2+H2O                     7.5900E+13  0.00000      3658.41
!DUPLICATE
! R0034
N2+M=2N+M                           1.8900E+18 -0.85000    113224.40
!H2O/16.2500/ 
! R0035
!N+O+M=NO+M                          7.6000E+14 -0.10000      -890.70
!H2O/16.2500/ 
! R0036
!N+NO2=N2O+O                         1.8000E+12  0.00000         0.00
! R0037
!N+O2=NO+O                           5.8410E+09  1.01000      3120.97
! R0038
!N+OH=NO+H                           1.0840E+14 -0.20000         0.00
! R0039
!N+NO=N2+O                           3.2000E+13  0.00000         0.00
! R0040
NH+H=N+H2                           1.6500E+11  0.71000       468.50
! R0041
!NH+O=NO+H                           4.8200E+13  0.02300        47.81
! R0042
!NH+O=N+OH                           2.0700E+10  0.62200      -180.15
! R0043
!NH+OH=HNO+H                         3.2500E+14 -0.37600       -23.15
! R0044
!NH+OH=N+H2O                         1.5900E+07  1.73300      -289.85
! R0045
!NH+O2=HNO+O                         3.3200E+09  1.03400      5746.77
! R0046
!NH+O2=NO+OH                         4.5000E+08  0.79000       601.35
! R0047
2NH=>N2+H2                          6.2600E+12 -0.03600       -80.97
! R0048
2NH=>N2+2H                          5.6340E+13 -0.03600       -80.97
! R0049
NH+N=N2+H                           3.0000E+13  0.00000         0.00
! R0050
!NH+NO=N2O+H                         2.7000E+15 -0.78000        10.06
! R0051
!NH+NO=N2+OH                         6.8000E+14 -0.78000        10.06
! R0052
!NH+NO2=N2O+OH                       4.1000E+12  0.00000         0.00
! R0053
!NH+NO2=HNO+NO                       5.9000E+12  0.00000         0.00
! R0054
!NH+HONO=NH2+NO2                     1.0000E+13  0.00000         0.00
! R0055
!NH+N2O=N2+HNO                       2.0000E+12  0.00000      3019.32
! R0056
NH2+M=NH+H+M                        1.2000E+15  0.00000     38246.07
! R0057
NH2+H=NH+H2                         1.0900E+05  2.59000       912.00
! R0058
!NH2+O=NH+OH                         7.2300E+12  0.00000         0.00
! R0059
!NH2+O=HNO+H                         1.5000E+15 -0.54700       421.04
!DUPLICATE
! R0060
!NH2+O=HNO+H                         7.7300E+13 -0.27700       325.28
!DUPLICATE
! R0061
!NH2+OH=NH+H2O                       4.0400E+04  2.52000      -310.00
! R0062
!NH2+HO2=H2NO+OH                     5.0000E+13  0.00000         0.00
! R0063
!NH2+HO2=NH3+O2                      2.1800E+06  2.08000     -2395.33
! R0064
!NH2+O2=H2NO+O                       2.6000E+11  0.48720     14643.69
! R0065
!NH2+O2=HNO+OH                       2.9000E-02  3.76400      9151.05
! R0066
NH2+N=N2+2H                         6.9000E+13  0.00000         0.00
! R0067
!NH2+NO=NNH+OH                       3.1000E+13 -0.48000       593.80
! R0068
!NH2+NO=N2+H2O                       1.1000E+20 -2.51400       644.12
! R0069
!NH2+NO2=H2NO+NO                     8.6000E+11  0.11000      -596.82
! R0070
!NH2+NO2=N2O+H2O                     2.2000E+11  0.11000      -596.82
! R0071
!NH2+HNO=NH3+NO                      5.9000E+02  2.95000     -1745.67
! R0072
!NH2+HONO=NH3+NO2                    4.8400E+00  3.36000     -2304.75
! R0073
2NH=NH2+N                           5.7000E-01  3.88000       172.10
! R0074
2NH2=NH3+NH                         5.6360E+00  3.53000       278.08
! R0075
NH2+NH=NH3+N                        9.5740E+03  2.46000        54.00
! R0076
N2H2+M=NNH+H+M                      1.9000E+27 -3.05000     33262.81
!H2O/7.0000/ 
! R0077
N2H2+H=NNH+H2                       4.8200E+08  1.76000       372.00
! R0078
!N2H2+O=NH2+NO                       1.0000E+13  0.00000         0.00
! R0079
!N2H2+O=NNH+OH                       1.1100E+08  1.62000       405.00
! R0080
!N2H2+OH=NNH+H2O                     6.7400E+03  2.80000      -255.13
! R0081
!N2H2+NO=N2O+NH2                     4.0000E+12  0.00000      5998.38
! R0082
!N2H2+NO2=NNH+HONO                   1.2500E+00  3.80000      5233.48
! R0083
N2H2+NH=NNH+NH2                     2.4000E+06  2.00000      -599.84
! R0084
N2H2+NH2=NNH+NH3                    2.7100E+05  2.22600      -518.32
! R0085
NH2+NH=N2H2+H                       1.3000E+14 -0.27200       -38.75
! R0086
2NH2=N2H2+H2                        1.7000E+08  1.62000      5929.44
! R0087
!N2H2+HO2=NNH+H2O2                   1.0000E+13  0.00000       999.90
! R0088
2NH2(+M)=N2H4(+M)                   5.6000E+14 -0.41400        33.21
LOW  /                              1.6000E+34 -5.49000       999.90/
TROE /                              3.100E-01   1.00E-30   1.00E+30   1.00E+30/
AR/0.5900/ N2/1.0000/ NH3/4.8700/ ! / O2/0.6900
! R0089
N2H4=N2H2+H2                        5.1900E+38 -7.84000     33766.03
! R0090
N2H4+H=N2H3+H2                      2.7600E+05  2.56000       613.93
! R0091
!N2H4+OH=N2H3+H2O                    1.3000E+13  0.00000      -160.02
! R0092
N2H4+NH2=N2H3+NH3                   7.6000E-01  4.00000      2037.03
! R0093
N2H4+N2H2=2N2H3                     2.5000E+10  0.50000     14995.94
! R0094
N2H4+NH=N2H3+NH2                    1.0000E+12  0.00000      1001.41
! R0095
!N2H4+O=N2H2+H2O                     4.4000E+11  0.00000      -639.09
! R0096
!N2H4+O=N2H3+OH                      6.7000E+08  1.50000      1434.68
! R0097
!N2H4+NO=N2H3+HNO                    6.0000E+01  3.16000     15521.81
! R0098
!N2H4+NO2=N2H3+HONO                  8.2000E+01  3.13000      4458.53
! R0099
!N2H4+NO2=N2H3+HNO2                  2.4000E-02  4.14000      3998.58
! R0100
N2H3(+M)=N2H2+H(+M)                 1.2800E+11  0.81900     24204.86
LOW  /                              3.8400E+40 -6.88000     27425.47/
TROE /                              8.420E-01   8.00E+04   2.80E+01   7.30E+03/
AR/1.0000/ N2/2.0000/ 
! R0101
N2H3+H=N2H2+H2                      7.4760E+03  2.79600      2355.07
! R0102
N2H3+H=H2NN+H2                      6.2430E+06  1.89000       124.30
! R0103
N2H3+H=NH3+NH                       1.0000E+11  0.00000         0.00
! R0104
!N2H3+O=N2H2+OH                      1.7000E+08  1.50000      -325.08
! R0105
!N2H3+O=NH2+HNO                      3.0000E+13  0.00000         0.00
! R0106
!N2H3+O=>NH2+NO+H                    3.0000E+13  0.00000         0.00
! R0107
!N2H3+OH=N2H2+H2O                    1.2000E+06  2.00000      -599.84
! R0108
!N2H3+OH=H2NN+H2O                    3.0000E+13  0.00000         0.00
! R0109
!N2H3+OH=NH3+HNO                     1.0000E+12  0.00000      7548.29
! R0110
!N2H3+HO2=N2H2+H2O2                  1.4000E+04  2.69000      -805.15
! R0111
!N2H3+HO2=N2H4+O2                    9.2000E+05  1.94000      1069.84
! R0112
N2H3+NH2=N2H2+NH3                   6.0800E-01  3.57400       598.83
! R0113
N2H3+NH2=H2NN+NH3                   1.1100E+01  3.08000       106.18
! R0114
N2H3+NH=N2H2+NH2                    2.0000E+13  0.00000         0.00
! R0115