!!!!!!!!!!!!!!!!!!!!!!!!!!!!!!!!!!!!!!!!!!!!!!!!!!!!!!!!!!!!!!!!!!!!!!!!!!!!!!!!
!                                                                              !
!                This CHEMKIN mechanism file is part of the                    !
!                        Supplemental Material for                             !
!                                                                              !
!       The importance of chemical mechanisms in sonochemical modelling        !
!                                                                              !
!    C. Kalmár 1, T. Turányi 2, I. G. Zsély 2, M. Papp 2, F. Hegedűs 1         !
!                                                                              !
! 1 Department of Hydrodynamic Systems, University of Technology and Economics,!
!                              Budapest, Hungary                               !
! 2 Institute of Chemistry, Eötvös University (ELTE), Budapest, Hungary        !
!                                                                              !
!                          Ultrason. Sonochem., 2021                           !
!                                                                              !
!!!!!!!!!!!!!!!!!!!!!!!!!!!!!!!!!!!!!!!!!!!!!!!!!!!!!!!!!!!!!!!!!!!!!!!!!!!!!!!!

ELEMENTS
H O
END

SPECIES
O H H2 OH O2 H2O HO2 H2O2 O3 OHEX
END

TRANSPORT
H                  0   145.000     2.050     0.000     0.000     0.000
H2                 1    38.000     2.920     0.000     0.790   280.000
H2O                2   572.400     2.605     1.844     0.000     4.000
H2O2               2   107.400     3.458     0.000     0.000     3.800
HO2                2   107.400     3.458     0.000     0.000     1.000
O                  0    80.000     2.750     0.000     0.000     0.000
O2                 1   107.400     3.458     0.000     1.600     3.800
O3                 2   180.000     4.100     0.000     0.000     2.000
OH                 1    80.000     2.750     0.000     0.000     0.000
OHEX               1    80.000     2.750     0.000     0.000     0.000
END

THERMO
  300.0000   1000.00 5000.0000
! Refitting species H:
!   max difference Cp/R = 1.7764e-15 at T =   200.0000 K
!   max difference H/RT = 2.8422e-14 at T =   200.0000 K
!   max difference S/R  = 3.5527e-15 at T =   664.2321 K
!   T_match =  1000.000000 jump
!   Delta(Cp/R, H/RT, S/R) = ( 4.441e-16, 0.000e+00, 0.000e+00)
H                 L 6/94H   1    0    0    0G  200.0000 6000.0000 1000.00      1
 2.50000000e+00 0.00000000e+00 0.00000000e+00 0.00000000e+00 0.00000000e+00    2
 2.54736600e+04-4.46682850e-01 2.50000000e+00-1.21434192e-16 3.14642268e-19    3
-3.30872200e-22 1.21191563e-25 2.54736600e+04-4.46682850e-01                   4
! Refitting species H2:
!   max difference Cp/R = 3.0330e-02 at T =   200.0000 K
!   max difference H/RT = 5.5191e-03 at T =   200.0000 K
!   max difference S/R  = 4.8930e-03 at T =   200.0000 K
!   T_match =  1000.000000 jump
!   Delta(Cp/R, H/RT, S/R) = ( 2.220e-15, 0.000e+00, 0.000e+00)
H2                TPIS78H   2    0    0    0G  200.0000 6000.0000 1000.00      1
 2.93286575e+00 8.26608026e-04-1.46402364e-07 1.54100414e-11-6.88804800e-16    2
-8.16223900e+02-1.02647801e+00 2.68763434e+00 5.08352924e-03-1.09134795e-05    3
 9.75972638e-09-2.98961778e-12-9.48720664e+02-7.06735279e-01                   4
! Refitting species O:
!   max difference Cp/R = 4.9696e-03 at T =   200.0000 K
!   max difference H/RT = 9.0429e-04 at T =   200.0000 K
!   max difference S/R  = 8.0172e-04 at T =   200.0000 K
!   T_match =  1000.000000 jump
!   Delta(Cp/R, H/RT, S/R) = (-4.441e-16, 3.553e-15,-3.553e-15)
O                 L 1/90O   1    0    0    0G  200.0000 6000.0000 1000.00      1
 2.54363697e+00-2.73162486e-05-4.19029520e-09 4.95481845e-12-4.79553694e-16    2
 2.92265295e+04 4.92264671e+00 3.11201699e+00-2.80464778e-03 5.23974549e-06    3
-4.42444222e-09 1.39393321e-12 2.91273034e+04 2.27964278e+00                   4
! Refitting species O2:
!   max difference Cp/R = 1.0265e-02 at T =   200.0000 K
!   max difference H/RT = 1.8678e-03 at T =   200.0000 K
!   max difference S/R  = 1.6560e-03 at T =   200.0000 K
!   T_match =  1000.000000 jump
!   Delta(Cp/R, H/RT, S/R) = ( 8.882e-16, 4.441e-16, 0.000e+00)
O2                RUS 89O   2    0    0    0G  200.0000 6000.0000 1000.00      1
 3.66096065e+00 6.56365811e-04-1.41149627e-07 2.05797935e-11-1.29913436e-15    2
-1.21490829e+03 3.41609021e+00 3.66627111e+00-2.01629566e-03 6.94873168e-06    3
-6.16244023e-09 1.75919060e-12-1.05352472e+03 4.12801194e+00                   4
! Refitting species OH:
!   max difference Cp/R = 5.9918e-04 at T =   200.0000 K
!   max difference H/RT = 1.0903e-04 at T =   200.0000 K
!   max difference S/R  = 9.6662e-05 at T =   200.0000 K
!   T_match =  1000.000000 jump
!   Delta(Cp/R, H/RT, S/R) = (-4.441e-16, 0.000e+00, 0.000e+00)
OH                IU3/03O   1 H  1    0    0G  200.0000 6000.0000 1000.00      1
 2.83853033e+00 1.10741289e-03-2.94000209e-07 4.20698729e-11-2.42289890e-15    2
 3.69787047e+03 5.84498899e+00 3.98520224e+00-2.34383614e-03 4.44744427e-06    3
-3.67375964e-09 1.27653925e-12 3.36950653e+03-7.65438871e-02                   4
! Refitting species H2O:
!   max difference Cp/R = 3.2870e-03 at T =   200.0000 K
!   max difference H/RT = 5.9812e-04 at T =   200.0000 K
!   max difference S/R  = 5.3027e-04 at T =   200.0000 K
!   T_match =  1000.000000 jump
!   Delta(Cp/R, H/RT, S/R) = ( 0.000e+00, 0.000e+00, 0.000e+00)
H2O               L 5/89H   2 O  1    0    0G  200.0000 6000.0000 1000.00      1
 2.67703890e+00 2.97318160e-03-7.73768890e-07 9.44335140e-11-4.26899910e-15    2
-2.98862362e+04 6.88231731e+00 4.23584018e+00-2.35035878e-03 7.44852451e-06    3
-6.61473728e-09 2.24734749e-12-3.02970623e+04-9.99620648e-01                   4
! Refitting species HO2:
!   max difference Cp/R = 3.4144e-02 at T =   200.0000 K
!   max difference H/RT = 6.2130e-03 at T =   200.0000 K
!   max difference S/R  = 5.5082e-03 at T =   200.0000 K
!   T_match =  1000.000000 jump
!   Delta(Cp/R, H/RT, S/R) = (-8.882e-16, 8.882e-16, 0.000e+00)
HO2               T 1/09H   1O   2    0    0G  200.0000 5000.0000 1000.00      1
 4.17228741e+00 1.88117627e-03-3.46277286e-07 1.94657549e-11 1.76256905e-16    2
 3.45761323e+01 2.96009637e+00 3.91532945e+00-1.48787475e-03 1.15167354e-05    3
-1.25715747e-08 4.35421300e-12 2.98674804e+02 5.28114803e+00                   4
! Refitting species H2O2:
!   max difference Cp/R = 3.9197e-02 at T =   200.0000 K
!   max difference H/RT = 7.1325e-03 at T =   200.0000 K
!   max difference S/R  = 6.3234e-03 at T =   200.0000 K
!   T_match =  1000.000000 jump
!   Delta(Cp/R, H/RT, S/R) = ( 0.000e+00, 0.000e+00, 0.000e+00)
H2O2              T 8/03H   2O   2    0    0G  200.0000 6000.0000 1000.00      1
 4.57977305e+00 4.05326003e-03-1.29844730e-06 1.98211400e-10-1.13968792e-14    2
-1.80030958e+04 6.67748430e-01 3.87148687e+00 2.89650863e-03 6.57196077e-06    3
-9.23920581e-09 3.42064984e-12-1.76669584e+04 5.06975745e+00                   4
! Refitting species OHEX:
!   max difference Cp/R = 6.3167e-07 at T =   967.7339 K
!   max difference H/RT = 3.6383e-02 at T =  1000.6503 K
!   max difference S/R  = 4.0716e-06 at T =  3852.6263 K
!   T_match =  1000.000000 jump
!   Delta(Cp/R, H/RT, S/R) = ( 0.000e+00, 0.000e+00, 0.000e+00)
OHEX                    H   1O   1    0    0G  300.0000 5000.0000 1000.00      1
 2.88273000e+00 1.01397430e-03-2.27687700e-07 2.17468300e-11-5.12630500e-16    2
 5.03014063e+04 5.59571607e+00 3.63725730e+00 1.85157457e-04-1.67634008e-06    3
 2.38739293e-09-8.43216802e-13 5.00213008e+04 1.35889652e+00                   4
! Refitting species O3:
!   max difference Cp/R = 1.3302e-01 at T =   200.0000 K
!   max difference H/RT = 2.4206e-02 at T =   200.0000 K
!   max difference S/R  = 2.1460e-02 at T =   200.0000 K
!   T_match =  1000.000000 jump
!   Delta(Cp/R, H/RT, S/R) = ( 3.553e-15, 3.553e-15, 0.000e+00)
O3                l 5/90O   3    0    0    0G  200.0000 6000.0000 1000.00      1
 1.23302914e+01-1.19324783e-02 7.98741278e-06-1.77194552e-09 1.26075824e-13    2
 1.26894349e+04-4.08729108e+01 1.90171935e+00 1.47594463e-02-2.37144203e-05    3
 2.32702350e-08-9.47762420e-12 1.59995172e+04 1.43776362e+01                   4
END

REACTIONS   MOLES  KELVINS
!################
!   H submech   #
!################
!     1
H+O2<=>O+OH                  5.0712E+015   -0.48596       8116.1
!     2
O+H2<=>H+OH                  1.2554E+006    2.27039       3501.2
!     3
OH+H2<=>H+H2O                1.3193E+007    1.87803       1585.8
!     4
2OH<=>O+H2O                  8.4999E+004    2.26419      -898.23
!     5
2H+M<=>H2+M                  4.9806E+018   -1.21273       308.02
H2/2.5/ O2/1/ H2O/12/
! Added O2 and AR as a potential thirdbody

!     6
2O+M<=>O2+M                    6.165E+15    -0.5000        0.00
H2/2.5/ H2O/12/
!     7
O+H+M<=>OH+M                   4.714E+18    -1.0000        0.00
H2/2.5/ O2/1/ H2O/12/
! Added O2 as a potential thirdbody

!     8
H+OH+M<=>H2O+M               1.4818E+024   -2.53792       60.788
H2/2.5/ O2/1/ H2O/12/
! Added O2 as a potential thirdbody

!     9
H+O2(+M)<=>HO2(+M)             4.650E+12     0.4400        0.00
LOW                  /       5.2669E+019   -1.37367        0.00     /
TROE                 /         6.700E-01    1.0E-30     1.0E+30    1.0E+30 /
H2/1.511/ O2/1.00/ H2O/11.372/
! Added O2 as a potential thirdbody

!    10
H+HO2<=>H2+O2                2.1231E+006    2.11330      -817.68
!    11
HO2+H<=>2OH                  5.7734E+013     0.000        86.070
!    12
HO2+O<=>OH+O2                  3.250E+13     0.000         0.00
!    13
HO2+OH<=>H2O+O2              9.5840E+011    0.42008      -477.40
!    14
2HO2<=>H2O2+O2                 1.300E+11     0.000       -820.33
DUPLICATE
!    15
2HO2<=>H2O2+O2               1.6048E+015     0.0000       7825.6
DUPLICATE
!    16
2OH(+M)<=>H2O2(+M)             2.148E+05     2.3219    -1712.31
LOW                  /       1.9928E+018   -1.17797    -2150.31     /
TROE                 /        4.3000E-01  1.0000E-30 1.0000E+30 1.0000E+30 /
H2O/5/ O2/0.8/ H2O2/5.13/ H2/2.47/
!    17
H2O2+H<=>H2O+OH                2.410E+13     0.0000     1997.99
!    18
H2O2+H<=>H2+HO2              9.7543E+019   -1.92495       4743.4
!    19
H2O2+O<=>OH+HO2                9.550E+06     2.0000     1997.99
!    20
H2O2+OH<=>H2O+HO2              1.740E+12     0.0000      160.04
DUPLICATE
!    21
H2O2+OH<=>H2O+HO2              7.590E+13     0.0000     3658.28
DUPLICATE
!################
! OHEX submech  #
!################
!    34
H+O+M<=>OHEX+M                 1.500E+13     0.0000     3007.05
H2/1/ H2O/6.5/ O2/0.4/
!    35
OHEX+H2O<=>OH+H2O              5.930E+12     0.5000     -432.81
!    36
OHEX+H2<=>OH+H2                2.950E+12     0.5000     -223.45
!    38
OHEX+OH<=>2OH                  6.010E+12     0.5000     -384.50
!    39
OHEX+H<=>OH+H                  1.310E+12     0.5000      -84.05
!    42
OHEX+O2<=>OH+O2                2.100E+12     0.5000     -240.56

!################
! O3 submech  #
!################

O3(+M)=O2+O(+M)			1.37E+15	-0.67	1.066912E+4
LOW	/2.275E+28	-4.37	11205.65/
Troe	/0.6417	3.91E-04	8680.74	6060.75/
H2/3.0/	O2/1.50/ O3/3.75/ O/6.0/

O3+O=O2+O2	 			4.82E+12 	0.00 	1.680623E+3

O3+H=O2+OH 				8.43E+13 	0.00 	3.834151E+2

O3+H=O+HO2				4.52E+11 	0.00	0

O3+OH=O2+HO2			1.85E+11 	0.00	 3.411327E+2

O3+H2O=O2+H2O2			6.62E+01 	0.00	 0

O3+HO2=OH+O2+O2			6.62E+09 	0.00 	4.080456E+2

END