ELEMENTS
H N O AR
END

SPECIES
N2     O2    H2O     AR
END

TRANSPORT
AR                 0   136.500     3.330     0.000     0.000     0.000
H2O                2   572.400     2.605     1.844     0.000     4.000
N2                 1    97.530     3.621     0.000     1.760     4.000
O2                 1   107.400     3.458     0.000     1.600     3.800
END

THERMO ALL
  300.0000   1000.00 5000.0000
! Refitting species O2:
!   max difference Cp/R = 1.0265e-02 at T =   200.0000 K
!   max difference H/RT = 1.8678e-03 at T =   200.0000 K
!   max difference S/R  = 1.6560e-03 at T =   200.0000 K
!   T_match =  1000.000000 jump
!   Delta(Cp/R, H/RT, S/R) = ( 8.882e-16, 4.441e-16, 0.000e+00)
O2                RUS 89O   2    0    0    0G  200.0000 6000.0000 1000.00      1
 3.66096065e+00 6.56365811e-04-1.41149627e-07 2.05797935e-11-1.29913436e-15    2
-1.21490829e+03 3.41609021e+00 3.66627111e+00-2.01629566e-03 6.94873168e-06    3
-6.16244023e-09 1.75919060e-12-1.05352472e+03 4.12801194e+00                   4
! Refitting species H2O:
!   max difference Cp/R = 3.2870e-03 at T =   200.0000 K
!   max difference H/RT = 5.9812e-04 at T =   200.0000 K
!   max difference S/R  = 5.3027e-04 at T =   200.0000 K
!   T_match =  1000.000000 jump
!   Delta(Cp/R, H/RT, S/R) = ( 0.000e+00, 0.000e+00, 0.000e+00)
H2O               L 5/89H   2 O  1    0    0G  200.0000 6000.0000 1000.00      1
 2.67703890e+00 2.97318160e-03-7.73768890e-07 9.44335140e-11-4.26899910e-15    2
-2.98862362e+04 6.88231731e+00 4.23584018e+00-2.35035878e-03 7.44852451e-06    3
-6.61473728e-09 2.24734749e-12-3.02970623e+04-9.99620648e-01                   4
! Refitting species N2:
!   max difference Cp/R = 4.5555e-03 at T =   200.0000 K
!   max difference H/RT = 8.2895e-04 at T =   200.0000 K
!   max difference S/R  = 7.3491e-04 at T =   200.0000 K
!   T_match =  1000.000000 jump
!   Delta(Cp/R, H/RT, S/R) = ( 8.882e-16, 0.000e+00, 0.000e+00)
N2                G 8/02N   2    0    0    0G  200.0000 6000.0000 1000.00      1
 2.95257637e+00 1.39690040e-03-4.92631603e-07 7.86010195e-11-4.60755204e-15    2
-9.24423063e+02 5.87156477e+00 3.58256851e+00-5.58781407e-04 7.83391479e-07    3
 8.73631719e-10-7.49971666e-13-1.05160018e+03 2.75873431e+00                   4
! Refitting species AR:
!   max difference Cp/R = 1.7764e-15 at T =   200.0000 K
!   max difference H/RT = 8.8818e-16 at T =   208.7044 K
!   max difference S/R  = 7.1054e-15 at T =   249.3247 K
!   T_match =  1000.000000 jump
!   Delta(Cp/R, H/RT, S/R) = ( 4.441e-16, 0.000e+00, 0.000e+00)
AR                G 5/97AR  1  0    0      0G  200.0000 6000.0000 1000.00      1
 2.50000000e+00 0.00000000e+00 0.00000000e+00 0.00000000e+00 0.00000000e+00    2
-7.45375000e+02 4.37967491e+00 2.50000000e+00-1.21434192e-16 3.14642268e-19    3
-3.30872200e-22 1.21191563e-25-7.45375000e+02 4.37967491e+00                   4
! Refitting species HE:
!   max difference Cp/R = 1.7764e-15 at T =   200.0000 K
!   max difference H/RT = 8.8818e-16 at T =   208.7044 K
!   max difference S/R  = 3.5527e-15 at T =   437.9190 K
!   T_match =  1000.000000 jump
!   Delta(Cp/R, H/RT, S/R) = ( 4.441e-16, 0.000e+00, 0.000e+00)
END

REACTIONS   MOLES  KELVINS

END
